Version 4
SHEET 1 880 680
WIRE 608 144 320 144
WIRE 64 160 -96 160
WIRE 400 176 320 176
WIRE -96 208 -96 160
WIRE 608 208 608 144
WIRE 400 352 400 176
WIRE 608 352 608 288
WIRE -96 368 -96 288
FLAG -96 368 0
FLAG 608 352 0
FLAG 400 352 0
SYMBOL AutoGenerated\\EPC2212 192 160 R0
SYMATTR InstName U1
SYMBOL voltage -96 192 R0
WINDOW 123 0 0 Left 0
WINDOW 39 0 0 Left 0
SYMATTR InstName V1
SYMATTR Value 5
SYMBOL voltage 608 192 R0
WINDOW 123 0 0 Left 0
WINDOW 39 0 0 Left 0
SYMATTR InstName V2
SYMATTR Value 10
TEXT 264 32 Left 2 !.dc V2 0 3 0.01 V1 2 5 1
