Version 4
SHEET 1 1368 680
WIRE 672 -272 464 -272
WIRE 464 -224 464 -272
WIRE 672 -224 672 -272
WIRE 560 80 544 80
WIRE 672 80 672 -144
WIRE 672 80 560 80
WIRE 768 80 672 80
WIRE 848 80 768 80
WIRE 992 80 928 80
WIRE 1280 80 1056 80
WIRE 160 96 64 96
WIRE 304 96 240 96
WIRE 352 96 304 96
WIRE 672 112 560 112
WIRE 768 128 768 80
WIRE 1280 128 1280 80
WIRE 64 160 64 96
WIRE 672 240 672 112
WIRE 768 240 768 192
WIRE 1280 240 1280 208
FLAG 64 240 0
FLAG 464 -144 0
FLAG 672 240 0
FLAG 1280 240 0
FLAG 768 240 0
SYMBOL voltage 64 144 R0
WINDOW 123 0 0 Left 0
WINDOW 39 0 0 Left 0
SYMATTR InstName V1
SYMATTR Value PULSE(0 5 0 1p 1p 5n 20n)
SYMBOL res 256 80 R90
WINDOW 0 0 56 VBottom 2
WINDOW 3 32 56 VTop 2
SYMATTR InstName R1
SYMATTR Value 1
SYMBOL voltage 464 -240 R0
WINDOW 123 0 0 Left 0
WINDOW 39 0 0 Left 0
SYMATTR InstName V2
SYMATTR Value 10
SYMBOL ind 656 -240 R0
SYMATTR InstName L1
SYMATTR Value 4.2µ
SYMBOL cap 752 128 R0
SYMATTR InstName C1
SYMATTR Value {C1}
SYMBOL ind 832 96 R270
WINDOW 0 32 56 VTop 2
WINDOW 3 5 56 VBottom 2
SYMATTR InstName L2
SYMATTR Value {L2}
SYMBOL cap 1056 64 R90
WINDOW 0 0 32 VBottom 2
WINDOW 3 32 32 VTop 2
SYMATTR InstName C2
SYMATTR Value {C2}
SYMBOL res 1264 112 R0
SYMATTR InstName R2
SYMATTR Value {RL}
SYMBOL AutoGenerated\\EPC2212 432 96 R0
SYMATTR InstName U1
TEXT 904 -200 Left 2 !.tran 0 8u 7.95u
TEXT 72 368 Left 2 !.model MYSW SW(Ron=1m Roff=100Meg Vt=1)
TEXT 72 416 Left 2 !.param C1=1f L2=300n C2=10p RL=11.54
